TITLE

* Set the defaults for precision simulations
DEFAULTS                                                              PRECISIO
* Define the beam characteristics
BEAM           -0.23       0.0      -2.5      -0.5      -0.5          PROTON
* Define the beam position
BEAMPOS                             -50.
SOURCE            1.        1.        1.
BIASING           0.                  3.      BIAS      BIAS
BIASING           0.                  9.   FPGA102  FPGA4002
STEPSIZE      0.0001              T1ABS1   LAYER41
GEOBEGIN                                                              COMBNAME
    0    0          
* Black body
SPH blkbody    0.0 0.0 0.0 850.
* Void sphere
SPH void       0.0 0.0 0.0 800.
* Air sphere
SPH air        0.0 0.0 0.0 750.
RCC phantom    0. -12. -23. 0. 24. 0. 8.
RPP bias       27. 450. -3. 3. 10. 42.
RPP fpga102    36.5 40.5 -2.0 2.0 20. 22.
RPP fpga502    86.5 90.5 -2.0 2.0 23. 25.
RPP fpga1002   136.5 140.5 -2.0 2.0 26. 28.0
RPP fpga2002   236.5 240.5 -2.0 2.0 29.0 31.
RPP fpga3002   336.5 340.5 -2.0 2.0 32.0 34.0
RPP fpga4002   436.5 440.5 -2.0 2.0 35.0 37.0
* Trackers
RPP tracker1   -13.5 13.5 -8. 8. 0.0 0.24
XYP t1abs      0.02
XYP t1alpGlu   0.0205
XYP t1alpid    0.0255
XYP t1airGap   0.1885
XYP t1chipAl   0.1915
XYP t1chipPi   0.1935
XYP t1chipGl   0.194
XYP t1topAl    0.197
XYP t1topPi    0.199
XYP t1kapGlu   0.1995
XYP t1kapt     0.207
XYP t1botGlu   0.2075
XYP t1botAl    0.2175
XYP t1botPi    0.2195
XYP t1absGlu   0.22
#if 0
* Contained by the box
XYP t1abs2     0.24
#endif
RPP tracker2   -13.5 13.5 -8. 8. 5.24 5.48
XYP t2abs1     5.26
XYP t2alpGlu   5.2605
XYP t2alpid    5.2655
XYP t2airGap   5.4285
XYP t2chipAl   5.4315
XYP t2chipPi   5.4335
XYP t2chipGl   5.434
XYP t2topAl    5.437
XYP t2topPi    5.439
XYP t2kapGlu   5.4395
XYP t2kapt     5.447
XYP t2botGlu   5.4475
XYP t2botAl    5.4575
XYP t2botPi    5.4595
XYP t2absGlu   5.46
#if 0
* Contained by the box
XYP t2abs2     5.48
#endif
* Frame (one side only)
RPP frame      13.5 15.0 -8.0 8.0 7.98 10.48
RPP pcbT1      13.5 26.5 -8. 8. 0.0205 0.1905
* pcbs...
RPP pcb1       13.5 26.5 -8. 8. 10.8305 11.0005
RPP pcb3       13.5 26.5 -8. 8. 11.9305 12.1005
RPP pcb5       13.5 26.5 -8. 8. 13.0305 13.2005
RPP pcb7       13.5 26.5 -8. 8. 14.1305 14.3005
RPP pcb9       13.5 26.5 -8. 8. 15.2305 15.4005
RPP pcb11      13.5 26.5 -8. 8. 16.3305 16.5005
RPP pcb13      13.5 26.5 -8. 8. 17.4305 17.6005
RPP pcb15      13.5 26.5 -8. 8. 18.5305 18.7005
RPP pcb17      13.5 26.5 -8. 8. 19.6305 19.8005
RPP pcb19      13.5 26.5 -8. 8. 20.7305 20.9005
RPP pcb21      13.5 26.5 -8. 8. 21.8305 22.0005
RPP pcb23      13.5 26.5 -8. 8. 22.9305 23.1005
RPP pcb25      13.5 26.5 -8. 8. 24.0305 24.2005
RPP pcb27      13.5 26.5 -8. 8. 25.1305 25.3005
RPP pcb29      13.5 26.5 -8. 8. 26.2305 26.4005
RPP pcb31      13.5 26.5 -8. 8. 27.3305 27.5005
RPP pcb33      13.5 26.5 -8. 8. 28.4305 28.6005
RPP pcb35      13.5 26.5 -8. 8. 29.5305 29.7005
RPP pcb37      13.5 26.5 -8. 8. 30.6305 30.8005
RPP pcb39      13.5 26.5 -8. 8. 31.7305 31.9005
RPP pcb41      13.5 26.5 -8. 8. 32.8305 33.0005
* Detector (45 layers)
RPP dtc        -13.5 13.5 -8. 8. 10.48 33.03
* dtclayer
XYP dtcAbs     10.83
XYP alpGlu     10.8305
XYP alpide     10.8405
XYP airGap     10.9985
XYP chipAl     11.0015
XYP chipPi     11.0035
XYP chipGlu    11.004
XYP topAl      11.007
XYP topPi      11.009
XYP kaptGlu    11.0095
XYP kapton     11.017
XYP botGlu     11.0175
XYP botAl      11.0275
XYP botPi      11.0295
XYP absGlu     11.03
* Layers
XYP Layer2     11.58
XYP Layer3     12.13
XYP Layer4     12.68
XYP Layer5     13.23
XYP Layer6     13.78
XYP Layer7     14.33
XYP Layer8     14.88
XYP Layer9     15.43
XYP Layer10    15.98
XYP Layer11    16.53
XYP Layer12    17.08
XYP Layer13    17.63
XYP Layer14    18.18
XYP Layer15    18.73
XYP Layer16    19.28
XYP Layer17    19.83
XYP Layer18    20.38
XYP Layer19    20.93
XYP Layer20    21.48
XYP Layer21    22.03
XYP Layer22    22.58
XYP Layer23    23.13
XYP Layer24    23.68
XYP Layer25    24.23
XYP Layer26    24.78
XYP Layer27    25.33
XYP Layer28    25.88
XYP Layer29    26.43
XYP Layer30    26.98
XYP Layer31    27.53
XYP Layer32    28.08
XYP Layer33    28.63
XYP Layer34    29.18
XYP Layer35    29.73
XYP Layer36    30.28
XYP Layer37    30.83
XYP Layer38    31.38
XYP Layer39    31.93
XYP Layer40    32.48
#if 0
XYP Layer41    33.03
#endif
#if 0
RPP clip       0.0 15. 0.0 15. 0.0 22.
#endif
END
* Black hole
BLKBODY      5 +blkbody -void
* Void around
VOID         5 +void -air
* Air around the treatment room
AIR          5 +air -phantom -bias  -tracker1 -tracker2 -dtc -frame -fpga102 -fpga502 -fpga1002 -fpga2002
               -fpga3002 -fpga4002 -pcbT1
               -pcb1 -pcb3 -pcb5 -pcb7 -pcb9 -pcb11 -pcb13 -pcb15 -pcb17 -pcb19 -pcb21  -pcb23 - pcb25  -pcb27 
               -pcb29 -pcb31 -pcb33 -pcb35 -pcb37 -pcb39 -pcb41
* Phantom (cylinder)
PHANTOM      5 +phantom
* Bias area
BIAS         5 +bias -fpga1002 -fpga102 -fpga2002 -fpga3002 -fpga4002 -fpga502
* FPGA10-2
FPGA102      5 +fpga102
* FPGA50-2
FPGA502      5 +fpga502
* FPGA100-2
FPGA1002     5 +fpga1002
* FPGA200-2
FPGA2002     5 +fpga2002
* FPGA300-2
FPGA3002     5 +fpga3002
* FPGA400-2
FPGA4002     5 +fpga4002
* Tracker1
T1ABS1       5 +tracker1 +t1abs
T1ALPGLU     5 +tracker1 +t1alpGlu -t1abs
T1ALPID      5 +tracker1 +t1alpid -t1alpGlu
T1AIRGAP     5 +tracker1 +t1airGap -t1alpid
T1CHIPAL     5 +tracker1 +t1chipAl -t1airGap
T1CHIPPI     5 +tracker1 +t1chipPi -t1chipAl
T1CHIPGL     5 +tracker1 +t1chipGl -t1chipPi
T1TOPAL      5 +tracker1 +t1topAl -t1chipGl
T1TOPPI      5 +tracker1 +t1topPi -t1topAl
T1KAPGLU     5 +tracker1 +t1kapGlu -t1topPi
T1KAPT       5 +tracker1 +t1kapt -t1kapGlu
T1BOTGLU     5 +tracker1 +t1botGlu -t1kapt
T1BOTAL      5 +tracker1 +t1botAl -t1botGlu
T1BOTPI      5 +tracker1 +t1botPi -t1botAl
T1ABSGLU     5 +tracker1 +t1absGlu -t1botPi
T1ABS2       5 +tracker1 -t1absGlu
* Tracker2
T2ABS1       5 +tracker2 +t2abs1
T2ALPGLU     5 +tracker2 +t2alpGlu -t2abs1
T2ALPID      5 +tracker2 +t2alpid -t2alpGlu
T2AIRGAP     5 +tracker2 +t2airGap -t2alpid
T2CHIPAL     5 +tracker2 +t2chipAl -t2airGap
T2CHIPPI     5 +tracker2 +t2chipPi -t2chipAl
T2CHIPGL     5 +tracker2 +t2chipGl -t2chipPi
T2TOPAL      5 +tracker2 +t2topAl -t2chipGl
T2TOPPI      5 +tracker2 +t2topPi -t2topAl
T2KAPGLU     5 +tracker2 +t2kapGlu -t2topPi
T2KAPT       5 +tracker2 +t2kapt -t2kapGlu
T2BOTGLU     5 +tracker2 +t2botGlu -t2kapt
T2BOTAL      5 +tracker2 +t2botAl -t2botGlu
T2BOTPI      5 +tracker2 +t2botPi -t2botAl
T2ABSGLU     5 +tracker2 +t2absGlu -t2botPi
T2ABS2       5 +tracker2 -t2absGlu
* Frame (one side only)
FRAME        5 +frame
PCBT1        5 +pcbT1
* pcbs
PCB1         5 +pcb1
PCB3         5 +pcb3
PCB5         5 +pcb5
PCB7         5 +pcb7
PCB9         5 +pcb9
PCB11        5 +pcb11
PCB13        5 +pcb13
PCB15        5 +pcb15
PCB17        5 +pcb17
PCB19        5 +pcb19
PCB21        5 +pcb21
PCB23        5 +pcb23
PCB25        5 +pcb25
PCB27        5 +pcb27
PCB29        5 +pcb29
PCB31        5 +pcb31
PCB33        5 +pcb33
PCB35        5 +pcb35
PCB37        5 +pcb37
PCB39        5 +pcb39
PCB41        5 +pcb41
* DTC
DTCABS       5 +dtc +dtcAbs
ALPGLU       5 +dtc +alpGlu -dtcAbs
ALPIDE       5 +dtc +alpide -alpGlu
AIRGAP       5 +dtc +airGap -alpide
CHIPAL       5 +dtc +chipAl -airGap
CHIPPI       5 +dtc +chipPi -chipAl
CHIPGLU      5 +dtc +chipGlu -chipPi
TOPAL        5 +dtc +topAl -chipGlu
TOPPI        5 +dtc +topPi -topAl
KAPTGLU      5 +dtc +kaptGlu -topPi
KAPTON       5 +dtc +kapton -kaptGlu
BOTGLU       5 +dtc +botGlu -kapton
BOTAL        5 +dtc +botAl -botGlu
BOTPI        5 +dtc +botPi -botAl
ABSGLU       5 +dtc +absGlu -botPi
* Layers
LAYER2       5 +dtc +Layer2 -absGlu
LAYER3       5 +dtc +Layer3  -Layer2
LAYER4       5 +dtc +Layer4  -Layer3
LAYER5       5 +dtc +Layer5  -Layer4
LAYER6       5 +dtc +Layer6  -Layer5
LAYER7       5 +dtc +Layer7  -Layer6
LAYER8       5 +dtc +Layer8  -Layer7
LAYER9       5 +dtc +Layer9  -Layer8
LAYER10      5 +dtc +Layer10  -Layer9
LAYER11      5 +dtc +Layer11  -Layer10
LAYER12      5 +dtc +Layer12  -Layer11
LAYER13      5 +dtc +Layer13  -Layer12
LAYER14      5 +dtc +Layer14  -Layer13
LAYER15      5 +dtc +Layer15  -Layer14
LAYER16      5 +dtc +Layer16  -Layer15
LAYER17      5 +dtc +Layer17  -Layer16
LAYER18      5 +dtc +Layer18  -Layer17
LAYER19      5 +dtc +Layer19  -Layer18
LAYER20      5 +dtc +Layer20  -Layer19
LAYER21      5 +dtc +Layer21  -Layer20
LAYER22      5 +dtc +Layer22  -Layer21
LAYER23      5 +dtc +Layer23  -Layer22
LAYER24      5 +dtc +Layer24  -Layer23
LAYER25      5 +dtc +Layer25  -Layer24
LAYER26      5 +dtc +Layer26  -Layer25
LAYER27      5 +dtc +Layer27  -Layer26
LAYER28      5 +dtc +Layer28  -Layer27
LAYER29      5 +dtc +Layer29  -Layer28
LAYER30      5 +dtc +Layer30  -Layer29
LAYER31      5 +dtc +Layer31  -Layer30
LAYER32      5 +dtc +Layer32  -Layer31
LAYER33      5 +dtc +Layer33  -Layer32
LAYER34      5 +dtc +Layer34  -Layer33
LAYER35      5 +dtc +Layer35  -Layer34
LAYER36      5 +dtc +Layer36  -Layer35
LAYER37      5 +dtc +Layer37  -Layer36
LAYER38      5 +dtc +Layer38  -Layer37
LAYER39      5 +dtc +Layer39  -Layer38
LAYER40      5 +dtc +Layer40  -Layer39
LAYER41      5 +dtc  -Layer40
END
* These are the lattices that copy the geometry to each of the placeholder region layers and call the translations to get the positions
LATTICE       LAYER2                            1.        1.          trans1
LATTICE       LAYER3                            2.        2.          trans2
LATTICE       LAYER4                            3.        3.          trans3
LATTICE       LAYER5                            4.        4.          trans4
LATTICE       LAYER6                            5.        5.          trans5
LATTICE       LAYER7                            6.        6.          trans6
LATTICE       LAYER8                            7.        7.          trans7
LATTICE       LAYER9                            8.        8.          trans8
LATTICE      LAYER10                            9.        9.          trans9
LATTICE      LAYER11                           10.       10.          trans10
LATTICE      LAYER12                           11.       11.          trans11
LATTICE      LAYER13                           12.       12.          trans12
LATTICE      LAYER14                           13.       13.          trans13
LATTICE      LAYER15                           14.       14.          trans14
LATTICE      LAYER16                           15.       15.          trans15
LATTICE      LAYER17                           16.       16.          trans16
LATTICE      LAYER18                           17.       17.          trans17
LATTICE      LAYER19                           18.       18.          trans18
LATTICE      LAYER20                           19.       19.          trans19
LATTICE      LAYER21                           20.       20.          trans20
LATTICE      LAYER22                           21.       21.          trans21
LATTICE      LAYER23                           22.       22.          trans22
LATTICE      LAYER24                           23.       23.          trans23
LATTICE      LAYER25                           24.       24.          trans24
LATTICE      LAYER26                           25.       25.          trans25
LATTICE      LAYER27                           26.       26.          trans26
LATTICE      LAYER28                           27.       27.          trans27
LATTICE      LAYER29                           28.       28.          trans28
LATTICE      LAYER30                           29.       29.          trans29
LATTICE      LAYER31                           30.       30.          trans30
LATTICE      LAYER32                           31.       31.          trans31
LATTICE      LAYER33                           32.       32.          trans32
LATTICE      LAYER34                           33.       33.          trans33
LATTICE      LAYER35                           34.       34.          trans34
LATTICE      LAYER36                           35.       35.          trans35
LATTICE      LAYER37                           36.       36.          trans36
LATTICE      LAYER38                           37.       37.          trans37
LATTICE      LAYER39                           38.       38.          trans38
LATTICE      LAYER40                           39.       39.          trans39
LATTICE      LAYER41                           40.       40.          trans40
GEOEND
ROT-DEFI         0.0                                             -0.55trans1
ROT-DEFI         0.0                                              -1.1trans2
ROT-DEFI         0.0                                             -1.65trans3
ROT-DEFI         0.0                                              -2.2trans4
ROT-DEFI                                                         -2.75trans5
ROT-DEFI                                                          -3.3trans6
ROT-DEFI                                                         -3.85trans7
ROT-DEFI                                                          -4.4trans8
ROT-DEFI                                                         -4.95trans9
ROT-DEFI                                                          -5.5trans10
ROT-DEFI                                                         -6.05trans11
ROT-DEFI                                                          -6.6trans12
ROT-DEFI                                                         -7.15trans13
ROT-DEFI                                                          -7.7trans14
ROT-DEFI                                                         -8.25trans15
ROT-DEFI                                                          -8.8trans16
ROT-DEFI                                                         -9.35trans17
ROT-DEFI                                                          -9.9trans18
ROT-DEFI                                                        -10.45trans19
ROT-DEFI                                                         -11.0trans20
ROT-DEFI                                                        -11.55trans21
ROT-DEFI                                                         -12.1trans22
ROT-DEFI                                                        -12.65trans23
ROT-DEFI                                                         -13.2trans24
ROT-DEFI                                                        -13.75trans25
ROT-DEFI                                                         -14.3trans26
ROT-DEFI                                                        -14.85trans27
ROT-DEFI                                                         -15.4trans28
ROT-DEFI                                                        -15.95trans29
ROT-DEFI                                                         -16.5trans30
ROT-DEFI                                                        -17.05trans31
ROT-DEFI                                                         -17.6trans32
ROT-DEFI                                                        -18.15trans33
ROT-DEFI                                                         -18.7trans34
ROT-DEFI                                                        -19.25trans35
ROT-DEFI                                                         -19.8trans36
ROT-DEFI                                                        -20.35trans37
ROT-DEFI                                                         -20.9trans38
ROT-DEFI                                                        -21.45trans39
ROT-DEFI                                                         -22.0trans40
* Add and define the materials used in the detector, pcb, super glue and "air gap"
MATERIAL                            1.42                              Kapton
COMPOUND     -0.0264  HYDROGEN   -0.6911    CARBON   -0.0733  NITROGENKapton
COMPOUND     -0.2092    OXYGEN                                        Kapton
MATERIAL                            1.05                              glue
COMPOUND     -0.7603    CARBON   -0.0709  HYDROGEN   -0.1688    OXYGENglue
MATERIAL                            1.66                              cfrp
COMPOUND        -1.0    CARBON                                        cfrp
MATERIAL         13.                 2.7                              ALUMINUM
MATERIAL         14.                2.33                              SILICON
* 104 Air dry (near sea level)
MATERIAL                         0.00129                              AIRGATE
COMPOUND   -0.000124    CARBON -0.755268  NITROGEN -0.231781    OXYGENAIRGATE
COMPOUND   -0.012827     ARGON                                        AIRGATE
MATERIAL                             1.7                              PCB
COMPOUND  -0.0684428  HYDROGEN-0.2780421    CARBON-0.4056325    OXYGENPCB
COMPOUND  -0.1807736   SILICON-0.0671091    COPPER                    PCB
* 276 Water liquid H2O
* Chemical Formula:  H -- O -- H
MATERIAL                             1.0                              WATGATE
COMPOUND         2.0  HYDROGEN       1.0    OXYGEN                    WATGATE
MAT-PROP                            78.0   WATGATE
MAT-PROP                            85.7   AIRGATE
MAT-PROP                            173.   SILICON
MAT-PROP                            166.  ALUMINUM
* Assign materials to the different regions
ASSIGNMA    BLCKHOLE   BLKBODY
ASSIGNMA      VACUUM      VOID
ASSIGNMA     AIRGATE       AIR
ASSIGNMA     WATGATE   PHANTOM
ASSIGNMA     AIRGATE      BIAS
ASSIGNMA     SILICON   FPGA102
ASSIGNMA     SILICON   FPGA502
ASSIGNMA     SILICON  FPGA1002
ASSIGNMA     SILICON  FPGA2002
ASSIGNMA     SILICON  FPGA3002
ASSIGNMA     SILICON  FPGA4002
* Tracker 1
ASSIGNMA        cfrp    T1ABS1
ASSIGNMA        glue  T1ALPGLU
ASSIGNMA     SILICON   T1ALPID
ASSIGNMA     AIRGATE  T1AIRGAP
ASSIGNMA    ALUMINUM  T1CHIPAL
ASSIGNMA      Kapton  T1CHIPPI
ASSIGNMA        glue  T1CHIPGL
ASSIGNMA    ALUMINUM   T1TOPAL
ASSIGNMA      Kapton   T1TOPPI
ASSIGNMA        glue  T1KAPGLU
ASSIGNMA      Kapton    T1KAPT
ASSIGNMA        glue  T1BOTGLU
ASSIGNMA    ALUMINUM   T1BOTAL
ASSIGNMA      Kapton   T1BOTPI
ASSIGNMA        glue  T1ABSGLU
ASSIGNMA        cfrp    T1ABS2
* Tracker 2
ASSIGNMA        cfrp    T2ABS1
ASSIGNMA        glue  T2ALPGLU
ASSIGNMA     SILICON   T2ALPID
ASSIGNMA     AIRGATE  T2AIRGAP
ASSIGNMA    ALUMINUM  T2CHIPAL
ASSIGNMA      Kapton  T2CHIPPI
ASSIGNMA        glue  T2CHIPGL
ASSIGNMA    ALUMINUM   T2TOPAL
ASSIGNMA      Kapton   T2TOPPI
ASSIGNMA        glue  T2KAPGLU
ASSIGNMA      Kapton    T2KAPT
ASSIGNMA        glue  T2BOTGLU
ASSIGNMA    ALUMINUM   T2BOTAL
ASSIGNMA      Kapton   T2BOTPI
ASSIGNMA        glue  T2ABSGLU
ASSIGNMA        cfrp    T2ABS2
* Frame
ASSIGNMA    ALUMINUM     FRAME
ASSIGNMA         PCB     PCBT1
* pcbs
ASSIGNMA         PCB      PCB1
ASSIGNMA         PCB      PCB3
ASSIGNMA         PCB      PCB5
ASSIGNMA         PCB      PCB7
ASSIGNMA         PCB      PCB9
ASSIGNMA         PCB     PCB11
ASSIGNMA         PCB     PCB13
ASSIGNMA         PCB     PCB15
ASSIGNMA         PCB     PCB17
ASSIGNMA         PCB     PCB19
ASSIGNMA         PCB     PCB21
ASSIGNMA         PCB     PCB23
ASSIGNMA         PCB     PCB25
ASSIGNMA         PCB     PCB27
ASSIGNMA         PCB     PCB29
ASSIGNMA         PCB     PCB31
ASSIGNMA         PCB     PCB33
ASSIGNMA         PCB     PCB35
ASSIGNMA         PCB     PCB37
ASSIGNMA         PCB     PCB39
ASSIGNMA         PCB     PCB41
* DTC
ASSIGNMA    ALUMINUM    DTCABS
ASSIGNMA        glue    ALPGLU
ASSIGNMA     SILICON    ALPIDE
ASSIGNMA     AIRGATE    AIRGAP
ASSIGNMA    ALUMINUM    CHIPAL
ASSIGNMA      Kapton    CHIPPI
ASSIGNMA        glue   CHIPGLU
ASSIGNMA    ALUMINUM     TOPAL
ASSIGNMA      Kapton     TOPPI
ASSIGNMA        glue   KAPTGLU
ASSIGNMA      Kapton    KAPTON
ASSIGNMA        glue    BOTGLU
ASSIGNMA    ALUMINUM     BOTAL
ASSIGNMA      Kapton     BOTPI
ASSIGNMA        glue    ABSGLU
* Dose to FPGA objects
USRBIN           10.      DOSE      -21.      40.5        2.      26.0FPGA102
USRBIN          36.5       -2.      24.0        1.        1.        1. &
USRBIN           10.      DOSE      -22.      90.5        2.      29.0FPGA502
USRBIN          86.5       -2.      27.0        1.        1.        1. &
USRBIN           10.      DOSE      -23.     140.5        2.      32.0FPGA1002
USRBIN         136.5       -2.      30.0        1.        1.        1. &
USRBIN           10.      DOSE      -24.     240.5        2.      35.0FPGA2002
USRBIN         236.5       -2.      33.0        1.        1.        1. &
USRBIN           10.      DOSE      -25.     340.5        2.       38.FPGA3002
USRBIN         336.5       -2.       36.        1.        1.        1. &
USRBIN           10.      DOSE      -26.     440.5        2.      41.0FPGA4002
USRBIN         436.5       -2.      39.0        1.        1.        1. &
* Dose to water phantom
USRBIN           10.      DOSE      -30.        8.        5.      -15.phanDose
USRBIN           -8.       -5.      -31.       32.       20.      640. &
* Overview of primary protons,  fluence of thermal neutrons and >20Mev Hadrons
USRBIN           10.  BEAMPART      -31.      450.        3.       50.OverProt
USRBIN            0.       -3.      -50.      450.        6.      100. &
USRBIN           10.  SI1MEVNE      -32.      450.        3.      250.n1Flu
USRBIN            0.       -3.     -100.      450.        6.      350. &
USRBIN           10.  HADGT20M      -33.      450.        3.      250.hadFlu
USRBIN            0.       -3.     -100.      450.        6.      350. &
* Tracker1 fluence and dose
USRBIN           10.  SI1MEVNE      -41.      13.5        8.    0.0255t1nFlu
USRBIN         -13.5       -8.    0.0205      270.      160.       10. &
USRBIN           10.  HADGT20M      -42.      13.5        8.    0.0255t1HadFlu
USRBIN         -13.5       -8.    0.0205      270.      160.       10. &
USRBIN           10.      DOSE      -43.      13.5        8.    0.0255t1Dose
USRBIN         -13.5       -8.    0.0205      270.      160.       10. &
* Tracker2 fluence and dose
USRBIN           10.  SI1MEVNE      -44.      13.5        8.    5.2655t2nFlu
USRBIN         -13.5       -8.    5.2605      270.      160.       10. &
USRBIN           10.  HADGT20M      -45.      13.5        8.    5.2655t2HadFl
USRBIN         -13.5       -8.    5.2605      270.      160.       10. &
USRBIN           10.      DOSE      -46.      13.5        8.    5.2655t2Dose
USRBIN         -13.5       -8.    5.2605      270.      160.       10. &
* Detector fluence and dose
USRBIN           10.  SI1MEVNE      -51.      13.5        8.     33.03nDetFlu
USRBIN         -13.5       -8.     10.48      108.       80.      902. &
USRBIN           10.  HADGT20M      -52.      13.5        8.     33.03haDetFlu
USRBIN         -13.5       -8.     10.48      108.       80.      902. &
USRBIN           10.      DOSE      -53.      13.5        8.     33.03detDose
USRBIN         -13.5       -8.     10.48      108.       80.      902. &
USRBIN           10.  BEAMPART      -54.      13.5        8.     33.03detBeam
USRBIN         -13.5       -8.     10.48      108.       80.      902. &
* Set the random number seed
RANDOMIZ          1.    18142.
* Set the number of primary histories to be simulated in the run
START       1125000.
STOP
